Here is a file to wreck with errors.
Second line.
Fourth line.
New line.
Second new line.